
**** 03/09/22 14:43:18 ******* PSpice 17.4.0 (Nov 2018) ******* ID# 0 ********

 ** Profile: "SCHEMATIC1-testtran"  [ D:\OneDrive\OneDrive - Asian Answers\Documentos\CSUS\EEE232\Projects\Project 1\comparator_latch


 ****     CIRCUIT DESCRIPTION


******************************************************************************




** Creating circuit file "testtran.cir" 
** WARNING: THIS AUTOMATICALLY GENERATED FILE MAY BE OVERWRITTEN BY SUBSEQUENT SIMULATIONS

*Libraries: 
* Profile Libraries :
* Local Libraries :
.LIB "../../../comparator_latching-pspicefiles/comparator_latching.lib" 
* From [PSPICE NETLIST] section of D:\Users\Vladmachine\AppData\Roaming\SPB_Data\cdssetup\OrCAD_PSpice\17.4.0\PSpice.ini file:
.lib "nom.lib" 

*Analysis directives: 
.TRAN/OP  0 10ns 0 5ps 
.OPTIONS ADVCONV
.OPTIONS ITL4= 100
.OPTIONS RELTOL= 0.0001
.PROBE64 V(alias(*)) I(alias(*)) W(alias(*)) D(alias(*)) NOISE(alias(*)) 
.INC "..\SCHEMATIC1.net" 



**** INCLUDING SCHEMATIC1.net ****
* source COMPARATOR_LATCHING
M_M1         VD1 VBP VDDA VDDA P  
+ L={l0}  
+ W={w0}          
+ M={m1}
V_Vdda         VDDA 0 {vdda}
V_Vssa         VSSA 0 {vssa}
M_M2         VD2 VBP VDDA VDDA P  
+ L={l0}  
+ W={w0}          
+ M={m1}
M_M10         D CLK1B B VSSA N  
+ L={l9}  
+ W={w9}          
+ M={m9}
M_M9         C CLK1B A VSSA N  
+ L={l9}  
+ W={w9}          
+ M={m9}
M_M8         B A VSSA VSSA N  
+ L={l7}  
+ W={w7}          
+ M={m7}
M_M7         A B VSSA VSSA N  
+ L={l7}  
+ W={w7}          
+ M={m7}
M_M17         Q D VDDA VDDA P  
+ L={l16}  
+ W={w16}          
+ M={m16}
M_M19         VD19 QB VSSA VSSA N  
+ L={l18}  
+ W={w18}          
+ M={m18}
M_M18         Q D VD19 VSSA N  
+ L={l18}  
+ W={w18}          
+ M={m18}
V_Vip         VIP VICM DC {vi1/2} AC 0
+PULSE {vi1/2} {vi2/2} {tdi} {tr} {tr} {2*pw} {2*per}
M_M14         D CLK1B VDDA VDDA P  
+ L={l13}  
+ W={w13}          
+ M={m13}
M_M13         C CLK1B VDDA VDDA P  
+ L={l13}  
+ W={w13}          
+ M={m13}
M_M11         C D VDDA VDDA P  
+ L={l11}  
+ W={w11}          
+ M={m11}
M_M12         D C VDDA VDDA P  
+ L={l11}  
+ W={w11}          
+ M={m11}
M_M15b         A CLK1A B VSSA N  
+ L={l15}  
+ W={w15}          
+ M={m15}
M_M15a         B CLK1A A VSSA N  
+ L={l15}  
+ W={w15}          
+ M={m15}
M_M3         B VIP VD1 VDDA P  
+ L={l3}  
+ W={w3}          
+ M={m3}
M_M4         A VREFP VD1 VDDA P  
+ L={l3}  
+ W={w3}          
+ M={m3}
M_M5         B VREFN VD2 VDDA P  
+ L={l3}  
+ W={w3}          
+ M={m3}
M_M6         A VIN VD2 VDDA P  
+ L={l3}  
+ W={w3}          
+ M={m3}
M_M0         VBP VBP VDDA VDDA P  
+ L={l0}  
+ W={w0}          
+ M={m0}
I_Ibias         VBP VSSA DC {ibias}  
V_Vin         VIN VICM DC {-vi1/2} AC 0
+PULSE {-vi1/2} {-vi2/2} {tdi} {tr} {tr} {2*pw} {2*per}
V_Vrefp         VREFP VICM {vref/2}
V_Vrefn         VREFN VICM {-vref/2}
V_Vicm         VICM VSSA {vicm}
V_Clk1a         CLK1A VSSA DC {vdda} AC 0
+PULSE {vdda} {vssa} {td1} {tr} {tr} {pw} {per}
V_Clk1b         CLK1B VSSA DC {vssa} AC 0
+PULSE {vssa} {vdda} {td2} {tr} {tr} {pw} {per}
M_M16         Q QB VDDA VDDA P  
+ L={l16}  
+ W={w16}          
+ M={m16}
M_M22         QB C VD23 VSSA N  
+ L={l18}  
+ W={w18}          
+ M={m18}
M_M21         QB C VDDA VDDA P  
+ L={l16}  
+ W={w16}          
+ M={m16}
M_M23         VD23 Q VSSA VSSA N  
+ L={l18}  
+ W={w18}          
+ M={m18}
M_M20         QB Q VDDA VDDA P  
+ L={l16}  
+ W={w16}          
+ M={m16}
.PARAM  l3=0.18u w11=0.72u m9=2 w3=1.44u l18=0.18u vi1=-0.4v per=600ps vicm=
+ {vdda/2} vref=200mv w16=0.72u m18=1 w15=0.72u m7=2 l7=0.18u w7=1.44u vssa=0.0
+  td2={0.5*per} td1={(0.5*per) - 400p} l9=0.18u ibias=50u w9=1.44u m3=2 m15=1
+  tr=100ps m0=2 w18=0.72u m1=4 vdda=1.6 l11=0.18u m16=1 m11=2 tdi={0.75*per}
+  l13=0.18u m13=2 pw={per/2 - tr} w13=0.72u w0=1.44u l15=0.18u l0=0.72u
+  vi2=201.8mv l16=0.18u

**** RESUMING testtran.cir ****
.END

WARNING(ORPSIM-15235): Mosfet M_M1, model P: Pd = 0 is less than W

WARNING(ORPSIM-15235): Mosfet M_M1, model P: Ps = 0 is less than W

WARNING(ORPSIM-15236): Parameter XW in model P is invalid - Ignored

WARNING(ORPSIM-15235): Mosfet M_M2, model P: Pd = 0 is less than W

WARNING(ORPSIM-15235): Mosfet M_M2, model P: Ps = 0 is less than W

WARNING(ORPSIM-15235): Mosfet M_M17, model P: Pd = 0 is less than W

WARNING(ORPSIM-15235): Mosfet M_M17, model P: Ps = 0 is less than W

WARNING(ORPSIM-15235): Mosfet M_M14, model P: Pd = 0 is less than W

WARNING(ORPSIM-15235): Mosfet M_M14, model P: Ps = 0 is less than W

WARNING(ORPSIM-15235): Mosfet M_M13, model P: Pd = 0 is less than W

WARNING(ORPSIM-15235): Mosfet M_M13, model P: Ps = 0 is less than W

WARNING(ORPSIM-15235): Mosfet M_M11, model P: Pd = 0 is less than W

WARNING(ORPSIM-15235): Mosfet M_M11, model P: Ps = 0 is less than W

WARNING(ORPSIM-15235): Mosfet M_M12, model P: Pd = 0 is less than W

WARNING(ORPSIM-15235): Mosfet M_M12, model P: Ps = 0 is less than W

WARNING(ORPSIM-15235): Mosfet M_M3, model P: Pd = 0 is less than W

WARNING(ORPSIM-15235): Mosfet M_M3, model P: Ps = 0 is less than W

WARNING(ORPSIM-15235): Mosfet M_M4, model P: Pd = 0 is less than W

WARNING(ORPSIM-15235): Mosfet M_M4, model P: Ps = 0 is less than W

WARNING(ORPSIM-15235): Mosfet M_M5, model P: Pd = 0 is less than W

WARNING(ORPSIM-15235): Mosfet M_M5, model P: Ps = 0 is less than W

WARNING(ORPSIM-15235): Mosfet M_M6, model P: Pd = 0 is less than W

WARNING(ORPSIM-15235): Mosfet M_M6, model P: Ps = 0 is less than W

WARNING(ORPSIM-15235): Mosfet M_M0, model P: Pd = 0 is less than W

WARNING(ORPSIM-15235): Mosfet M_M0, model P: Ps = 0 is less than W

WARNING(ORPSIM-15235): Mosfet M_M16, model P: Pd = 0 is less than W

WARNING(ORPSIM-15235): Mosfet M_M16, model P: Ps = 0 is less than W

WARNING(ORPSIM-15235): Mosfet M_M21, model P: Pd = 0 is less than W

WARNING(ORPSIM-15235): Mosfet M_M21, model P: Ps = 0 is less than W

WARNING(ORPSIM-15235): Mosfet M_M20, model P: Pd = 0 is less than W

WARNING(ORPSIM-15235): Mosfet M_M20, model P: Ps = 0 is less than W

WARNING(ORPSIM-15235): Mosfet M_M10, model N: Pd = 0 is less than W

WARNING(ORPSIM-15235): Mosfet M_M10, model N: Ps = 0 is less than W

WARNING(ORPSIM-15236): Parameter XW in model N is invalid - Ignored

WARNING(ORPSIM-15235): Mosfet M_M9, model N: Pd = 0 is less than W

WARNING(ORPSIM-15235): Mosfet M_M9, model N: Ps = 0 is less than W

WARNING(ORPSIM-15235): Mosfet M_M8, model N: Pd = 0 is less than W

WARNING(ORPSIM-15235): Mosfet M_M8, model N: Ps = 0 is less than W

WARNING(ORPSIM-15235): Mosfet M_M7, model N: Pd = 0 is less than W

WARNING(ORPSIM-15235): Mosfet M_M7, model N: Ps = 0 is less than W

WARNING(ORPSIM-15235): Mosfet M_M19, model N: Pd = 0 is less than W

WARNING(ORPSIM-15235): Mosfet M_M19, model N: Ps = 0 is less than W

WARNING(ORPSIM-15235): Mosfet M_M18, model N: Pd = 0 is less than W

WARNING(ORPSIM-15235): Mosfet M_M18, model N: Ps = 0 is less than W

WARNING(ORPSIM-15235): Mosfet M_M15b, model N: Pd = 0 is less than W

WARNING(ORPSIM-15235): Mosfet M_M15b, model N: Ps = 0 is less than W

WARNING(ORPSIM-15235): Mosfet M_M15a, model N: Pd = 0 is less than W

WARNING(ORPSIM-15235): Mosfet M_M15a, model N: Ps = 0 is less than W

WARNING(ORPSIM-15235): Mosfet M_M22, model N: Pd = 0 is less than W

WARNING(ORPSIM-15235): Mosfet M_M22, model N: Ps = 0 is less than W

WARNING(ORPSIM-15235): Mosfet M_M23, model N: Pd = 0 is less than W

WARNING(ORPSIM-15235): Mosfet M_M23, model N: Ps = 0 is less than W

INFO(ORPSIM-15454): Model P: Using BSIM VERSION 3.1 or lower

INFO(ORPSIM-15454): Model N: Using BSIM VERSION 3.1 or lower

**** 03/09/22 14:43:18 ******* PSpice 17.4.0 (Nov 2018) ******* ID# 0 ********

 ** Profile: "SCHEMATIC1-testtran"  [ D:\OneDrive\OneDrive - Asian Answers\Documentos\CSUS\EEE232\Projects\Project 1\comparator_latch


 ****     MOSFET MODEL PARAMETERS


******************************************************************************




               P               N               
               PMOS            NMOS            
  T_Measured   27              27            
   T_Current   27              27            
       LEVEL    7               7            
           L  100.000000E-06  100.000000E-06 
           W  100.000000E-06  100.000000E-06 
         VTO    -.382344         .36943      
          KP  505.338100E-06  505.338100E-06 
       GAMMA    0               0            
      LAMBDA    0               0            
         RSH    8.1             7            
          IS    1.000000E-15    1.000000E-15 
          JS  100.000000E-06  100.000000E-06 
          PB     .846161         .8          
        PBSW     .8              .8          
          CJ    1.214428E-03  947.109700E-06 
        CJSW  216.564200E-12  190.590100E-12 
          MJ     .419208         .372616     
        MJSW     .320287         .136976     
        CGSO  782.000000E-12  858.000000E-12 
        CGDO  782.000000E-12  858.000000E-12 
        CGBO    1.000000E-12    1.000000E-12 
         TOX    4.100000E-09    4.100000E-09 
          XJ  100.000000E-09  100.000000E-09 
       UCRIT   10.000000E+03   10.000000E+03 
       DELTA     .01             .01         
      DIOMOD    2               2            
          K1     .572205         .578912     
          K2     .021972        1.110723E-03 
        LETA    0               0            
        WETA    0               0            
          U0  109.4682        293.1688       
       XPART     .5              .5          
        VTH0    -.382344         .36943      
          K3     .157675        1.000000E-03 
          W0    1.000000E-06  100.000000E-09 
         NLX  110.421200E-09  203.774800E-09 
        DVT0     .623484        1.295363     
        DVT1     .247926         .342155     
          UA    1.316460E-09   -1.219420E-09 
          UB    1.000000E-21    2.325738E-18 
          UC -100.000000E-12   70.612890E-12 
        VSAT  105.489200E+03  167.616400E+03 
        RDSW  199.1594        105.6133       
        VOFF    -.093565        -.094802     
     NFACTOR    2               2.186007     
        PCLM     .96422         1.746064     
      PDIBL1    3.026627E-03     .325819     
      PDIBL2  -10.000000E-06    2.701992E-03 
       DROUT  111.701600E-06     .978723     
      PSCBE1   79.999860E+09   44.947780E+09 
      PSCBE2  827.189700E-12   36.720740E-09 
          A0    1.579686        2            
          A1     .388689        1.091680E-03 
          A2     .401038         .330303     
       NPEAK  415.890000E+15  235.490000E+15 
         LDD    0               0            
        LITL   35.071360E-09   35.071360E-09 
         UA1    4.310000E-09    4.310000E-09 
         UB1   -7.610000E-18   -7.610000E-18 
         UC1  -56.000000E-12  -56.000000E-12 
        PVAG     .019012         .012276     
        KETA     .029861        -.013855     
        ETA0  351.539200E-06    2.665034E-03 
        ETAB -480.433800E-06   60.289750E-06 
         K3B    4.276364         .029712     
        DVT2     .1              .039559     
        DSUB   12.150870E-06     .044222     
      MOBMOD    1               1            
         AGS     .311502         .476455     
       DVT1W    0               0            
       DVT2W    0               0            
        PRWG     .5              .5          
        PRWB    -.494703        -.2          
     PDIBLCB   -1.000000E-03    -.1          
         DWG  -19.980340E-09    2.754317E-09 
         DWB   -2.481453E-09   -3.690793E-09 
          B0  472.929700E-09  161.710100E-09 
          B1    1.446715E-06    5.000000E-06 
        LINT   29.394800E-09   17.156220E-09 
        WINT                    2.885735E-09 
         DLC   29.394800E-09   17.156220E-09 
         DWC    0               2.885735E-09 
          CF    0               0            
        NOIA    9.900000E+18  100.000000E+18 
        NOIB    2.400000E+03   50.000000E+03 
        NOIC    1.400000E-12   -1.400000E-12 
       LKETA   -3.648003E-03  532.492200E-06 
       WKETA     .013323       -5.071892E-03 
       PVSAT   50               2.000000E+03 
       PKETA   -1.822724E-03   -2.090695E-03 
       PVTH0  516.791300E-06   -5.105777E-03 
         PUA  -43.082600E-12  -44.823200E-12 
         PUB    1.000000E-21    5.018589E-24 
         PU0   -1.067435       -4.020608     
       PRDSW    9.506882       -1.101173     
       PETA0  100.000000E-06  100.000000E-06 
         PK2    1.095907E-03    2.247806E-03 
         VTM     .025864         .025864     
     VERSION    3.1             3.1          
       PBSWG     .8              .8          
       MJSWG     .320287         .136976     
       CJSWG  422.000000E-12  330.000000E-12 


ERROR(ORPSIM-15667): Pulse Delay must be >= 0 for V_Clk1a.


          JOB ABORTED

**** 03/09/22 14:43:18 ******* PSpice 17.4.0 (Nov 2018) ******* ID# 0 ********

 ** Profile: "SCHEMATIC1-testtran"  [ D:\OneDrive\OneDrive - Asian Answers\Documentos\CSUS\EEE232\Projects\Project 1\comparator_latch


 ****     JOB STATISTICS SUMMARY


******************************************************************************



  License check-out time            =        8.56
  Total job time                    =         .02
